Circuit: * C:\Users\lisan\Documents\Repositorios\ASSD\TP1---Muestreo\Ex7\Spice\Integracion_modificado.asc

Early termination of direct N-R iteration.
Direct Newton iteration failed to find .op point.  (Use ".option noopiter" to skip.)
Starting Gmin stepping
Gmin = 10
vernier = 0.5
vernier = 0.25
vernier = 0.125
Gmin = 5.49741
vernier = 0.0625
vernier = 0.03125
vernier = 0.015625
vernier = 0.0078125
Gmin = 5.51716
vernier = 0.00390625
vernier = 0.00195313
vernier = 0.000976563
vernier = 0.000488281
Gmin = 5.50104
Gmin = 0
Gmin stepping failed

Starting source stepping with srcstepmethod=0
Source Step = 3.0303%
Source Step = 33.3333%
Source Step = 63.6364%
Source Step = 93.9394%
Source stepping succeeded in finding the operating point.

Ignoring empty pin current: Ix(u9:1)
Ignoring empty pin current: Ix(u9:2)
Ignoring empty pin current: Ix(u9:1)
Ignoring empty pin current: Ix(u9:2)
Heightened Def Con from 0.000183219 to 0.000183219
Heightened Def Con from 0.000208838 to 0.000208839
Heightened Def Con from 0.000221648 to 0.000221648
Heightened Def Con from 0.000221648 +++to 0.000221648
Heightened Def Con from 0.000221648 +++to 0.000221648
Heightened Def Con from 0.000221648 +++to 0.000221648
Heightened Def Con from 0.000221648 +++to 0.000221648
Heightened Def Con from 0.000221648 +++to 0.000221648
Heightened Def Con from 0.000221648 ++++to 0.000221648
Heightened Def Con from 0.000221648 to 0.000221648
Heightened Def Con from 0.000221648 +++to 0.000221648
Heightened Def Con from 0.000221648 +++to 0.000221648
Heightened Def Con from 0.000221648 ++++to 0.000221648
Heightened Def Con from 0.000221648 ++++to 0.000221648
Heightened Def Con from 0.000221648 +++to 0.000221648
Heightened Def Con from 0.000221648 +++to 0.000221648
Heightened Def Con from 0.000221648 +++to 0.000221648
Heightened Def Con from 0.000221648 ++++to 0.000221648
Heightened Def Con from 0.000221648 +++to 0.000221648
Heightened Def Con from 0.000221648 ++++to 0.000221648
Heightened Def Con from 0.000221648 ++++to 0.000221648
Heightened Def Con from 0.000221648 ++++to 0.000221648
Heightened Def Con from 0.000221648 ++++to 0.000221648
Heightened Def Con from 0.000221648 ++++to 0.000221648
Heightened Def Con from 0.000221648 ++++to 0.000221648
Heightened Def Con from 0.000221648 ++++to 0.000221648
Heightened Def Con from 0.000221648 ++++to 0.000221648
Heightened Def Con from 0.000221648 ++++to 0.000221648
Heightened Def Con from 0.000221648 +++to 0.000221648
Heightened Def Con from 0.000221648 +++to 0.000221648
Heightened Def Con from 0.000221648 ++++to 0.000221648
Heightened Def Con from 0.000221648 ++++to 0.000221648
Heightened Def Con from 0.000221648 ++++to 0.000221648
Heightened Def Con from 0.000221648 to 0.000221648
Heightened Def Con from 0.000221648 to 0.000221648
Heightened Def Con from 0.000247267 to 0.000247268
Heightened Def Con from 0.000260077 to 0.000260078
Heightened Def Con from 0.000272887 to 0.000272887
Heightened Def Con from 0.000541898 to 0.000541899
Heightened Def Con from 0.000554708 to 0.000554708
Heightened Def Con from 0.000554708 +to 0.000554708
Heightened Def Con from 0.000554708 to 0.000554708
Heightened Def Con from 0.000554708 to 0.000554708
Heightened Def Con from 0.000567517 to 0.000567517
Heightened Def Con from 0.000567517 to 0.000567517
Heightened Def Con from 0.000567517 to 0.000567518
Heightened Def Con from 0.000580327 to 0.000580328
Heightened Def Con from 0.000593137 to 0.000593137
Heightened Def Con from 0.000605947 to 0.000605947
Heightened Def Con from 0.000823719 to 0.000823719
Heightened Def Con from 0.000887768 to 0.000887768
Heightened Def Con from 0.000887768 ++to 0.000887768
Heightened Def Con from 0.000887768 +++to 0.000887768
Heightened Def Con from 0.000887768 ++to 0.000887768
Heightened Def Con from 0.000887768 ++to 0.000887768
Heightened Def Con from 0.000887768 ++to 0.000887768
Heightened Def Con from 0.000887768 +++to 0.000887768
Heightened Def Con from 0.000887768 +++to 0.000887768
Heightened Def Con from 0.000887768 ++to 0.000887768
Heightened Def Con from 0.000887768 +++to 0.000887768
Heightened Def Con from 0.000887768 ++to 0.000887768
Heightened Def Con from 0.000887768 +++to 0.000887768
Heightened Def Con from 0.000887768 +++to 0.000887768
Heightened Def Con from 0.000887768 +++to 0.000887768
Heightened Def Con from 0.000887768 +++to 0.000887768
Heightened Def Con from 0.000887768 +++to 0.000887768
Heightened Def Con from 0.000887768 +++to 0.000887768
Heightened Def Con from 0.000887768 +++to 0.000887768
Heightened Def Con from 0.000887768 +++to 0.000887768
Heightened Def Con from 0.000887768 +++to 0.000887768
Heightened Def Con from 0.000887768 +++to 0.000887768
Heightened Def Con from 0.000887768 +++to 0.000887768
Heightened Def Con from 0.000887768 +++to 0.000887768
Heightened Def Con from 0.000887768 +++to 0.000887768
Heightened Def Con from 0.000887768 +++to 0.000887768
Heightened Def Con from 0.000887768 +++to 0.000887768
Heightened Def Con from 0.000887768 +++to 0.000887768
Heightened Def Con from 0.000887768 +++to 0.000887768
Heightened Def Con from 0.000887768 +++to 0.000887768
Heightened Def Con from 0.000887768 +++to 0.000887768
Heightened Def Con from 0.000887768 +++to 0.000887768
Heightened Def Con from 0.000887768 +++to 0.000887768
Heightened Def Con from 0.000887768 +++to 0.000887768
Heightened Def Con from 0.000887768 +++to 0.000887768
Heightened Def Con from 0.000887768 +++to 0.000887768
Heightened Def Con from 0.000887768 ++++to 0.000887768
Heightened Def Con from 0.000887768 ++++to 0.000887768
Heightened Def Con from 0.000887768 ++++to 0.000887768
Heightened Def Con from 0.000887768 +++to 0.000887768
Heightened Def Con from 0.000887768 ++++to 0.000887768
Heightened Def Con from 0.000887768 ++++to 0.000887768
Heightened Def Con from 0.000887768 ++++to 0.000887768
Heightened Def Con from 0.000887768 ++++to 0.000887768
Heightened Def Con from 0.000887768 ++++to 0.000887768
Heightened Def Con from 0.000887768 ++++to 0.000887768
Heightened Def Con from 0.000887768 ++++to 0.000887768
Heightened Def Con from 0.000887768 ++++to 0.000887768
Heightened Def Con from 0.000887768 ++++to 0.000887768
Heightened Def Con from 0.000887768 ++++to 0.000887768
Heightened Def Con from 0.000887768 ++++to 0.000887768
Heightened Def Con from 0.000887768 ++++to 0.000887768
Heightened Def Con from 0.000887768 ++++to 0.000887768
Heightened Def Con from 0.000887768 ++++to 0.000887768
Heightened Def Con from 0.000887768 ++++to 0.000887768
Heightened Def Con from 0.000887768 ++++to 0.000887768
Heightened Def Con from 0.000887768 ++++to 0.000887768
Heightened Def Con from 0.000887768 ++++to 0.000887768
Heightened Def Con from 0.000887768 ++++to 0.000887768
Heightened Def Con from 0.000887768 ++++to 0.000887768
Heightened Def Con from 0.000887768 ++++to 0.000887768
Heightened Def Con from 0.000887768 ++++to 0.000887768
Heightened Def Con from 0.000887768 ++++to 0.000887768
Heightened Def Con from 0.000887768 ++++to 0.000887768
Heightened Def Con from 0.000887768 ++++to 0.000887768
Heightened Def Con from 0.000887768 ++++to 0.000887768
Heightened Def Con from 0.000887768 ++++to 0.000887768
Heightened Def Con from 0.000887768 ++++to 0.000887768
Heightened Def Con from 0.000887768 ++++to 0.000887768
Heightened Def Con from 0.000887768 ++++to 0.000887768
Heightened Def Con from 0.000887768 ++++to 0.000887768
Heightened Def Con from 0.000887768 ++++to 0.000887768
Heightened Def Con from 0.000887768 ++++to 0.000887768
Heightened Def Con from 0.000887768 ++++to 0.000887768
Heightened Def Con from 0.000887768 ++++to 0.000887768
Heightened Def Con from 0.000887768 ++++to 0.000887768
Heightened Def Con from 0.000887768 ++++to 0.000887768
Heightened Def Con from 0.000887768 ++++to 0.000887768
Heightened Def Con from 0.000887768 ++++to 0.000887768
Heightened Def Con from 0.000887768 ++++to 0.000887768
Heightened Def Con from 0.000887768 ++++to 0.000887768
Heightened Def Con from 0.000887768 ++++to 0.000887768
Heightened Def Con from 0.000887768 ++++to 0.000887768
Heightened Def Con from 0.000887768 ++++to 0.000887768
Heightened Def Con from 0.000887768 ++++to 0.000887768
Heightened Def Con from 0.000887768 ++++to 0.000887768
Heightened Def Con from 0.000887768 ++++to 0.000887768
Heightened Def Con from 0.000887768 ++++to 0.000887768
Heightened Def Con from 0.000887768 ++++to 0.000887768
Heightened Def Con from 0.000887768 ++++to 0.000887768
Heightened Def Con from 0.000887768 ++++to 0.000887768
Heightened Def Con from 0.000887768 ++++to 0.000887768
Heightened Def Con from 0.000887768 ++++to 0.000887768
Heightened Def Con from 0.000887768 ++++to 0.000887768
Heightened Def Con from 0.000887768 ++++to 0.000887768
Heightened Def Con from 0.000887768 ++++to 0.000887768
Heightened Def Con from 0.000887768 ++++to 0.000887768
Heightened Def Con from 0.000887768 ++++to 0.000887768
Heightened Def Con from 0.000887768 ++++to 0.000887768
Heightened Def Con from 0.000887768 ++++to 0.000887768
Heightened Def Con from 0.000887768 ++++to 0.000887768
Heightened Def Con from 0.000887768 ++++to 0.000887768
Heightened Def Con from 0.000887768 ++++to 0.000887768
Heightened Def Con from 0.000887768 ++++to 0.000887768
Heightened Def Con from 0.000887768 ++++to 0.000887768
Heightened Def Con from 0.000887768 ++++to 0.000887768
Heightened Def Con from 0.000887768 ++++to 0.000887768
Heightened Def Con from 0.000887768 ++++to 0.000887768
Heightened Def Con from 0.000887768 ++++to 0.000887768
Heightened Def Con from 0.000887768 ++++to 0.000887768
Heightened Def Con from 0.000887768 ++++to 0.000887768
Heightened Def Con from 0.000887768 ++++to 0.000887768
Heightened Def Con from 0.000887768 ++++to 0.000887768
Heightened Def Con from 0.000887768 ++++to 0.000887768
Heightened Def Con from 0.000887768 ++++to 0.000887768
Heightened Def Con from 0.000887768 ++++to 0.000887768
Heightened Def Con from 0.000887768 ++++to 0.000887768
Heightened Def Con from 0.000887768 ++++to 0.000887768
Heightened Def Con from 0.000887768 ++++to 0.000887768
Heightened Def Con from 0.000887768 ++++to 0.000887768
Heightened Def Con from 0.000887768 ++++to 0.000887768
Heightened Def Con from 0.000887768 ++++to 0.000887768
Heightened Def Con from 0.000887768 ++++to 0.000887768
Heightened Def Con from 0.000887768 ++++to 0.000887768
Heightened Def Con from 0.000887768 ++++to 0.000887768
Heightened Def Con from 0.000887768 ++++to 0.000887768
Heightened Def Con from 0.000887768 ++++to 0.000887768
Heightened Def Con from 0.000887768 ++++to 0.000887768
Heightened Def Con from 0.000887768 ++++to 0.000887768
Heightened Def Con from 0.000887768 ++++to 0.000887768
Heightened Def Con from 0.000887768 ++++to 0.000887768
Heightened Def Con from 0.000887768 ++++to 0.000887768
Heightened Def Con from 0.000887768 ++++to 0.000887768
Heightened Def Con from 0.000887768 ++++to 0.000887768
Heightened Def Con from 0.000887768 ++++to 0.000887768
Heightened Def Con from 0.000887768 ++++to 0.000887768
Heightened Def Con from 0.000887768 ++++to 0.000887768
Heightened Def Con from 0.000887768 ++++to 0.000887768
Heightened Def Con from 0.000887768 ++++to 0.000887768
Heightened Def Con from 0.000887768 ++++to 0.000887768
Heightened Def Con from 0.000887768 ++++to 0.000887768
Heightened Def Con from 0.000887768 ++++to 0.000887768
Heightened Def Con from 0.000887768 ++++to 0.000887768
Heightened Def Con from 0.000887768 ++++to 0.000887768
Heightened Def Con from 0.000887768 ++++to 0.000887768
Heightened Def Con from 0.000887768 ++++to 0.000887768
Heightened Def Con from 0.000887768 ++++to 0.000887768
Heightened Def Con from 0.000887768 ++++to 0.000887768
Heightened Def Con from 0.000887768 ++++to 0.000887768
Heightened Def Con from 0.000887768 ++++to 0.000887768
Heightened Def Con from 0.000887768 ++++to 0.000887768
Heightened Def Con from 0.000887768 ++++to 0.000887768
Heightened Def Con from 0.000887768 ++++to 0.000887768
Heightened Def Con from 0.000887768 ++++to 0.000887768
Heightened Def Con from 0.000887768 ++++to 0.000887768
Heightened Def Con from 0.000887768 ++++to 0.000887768
Heightened Def Con from 0.000887768 ++++to 0.000887768
Heightened Def Con from 0.000887768 ++++to 0.000887768
Heightened Def Con from 0.000887768 ++++to 0.000887768
Heightened Def Con from 0.000887768 ++++to 0.000887768
Heightened Def Con from 0.000887768 ++++to 0.000887768
Heightened Def Con from 0.000887768 ++++to 0.000887768
Heightened Def Con from 0.000887768 ++++to 0.000887768
Heightened Def Con from 0.000887768 ++++to 0.000887768
Heightened Def Con from 0.000887768 +++++to 0.000887768
Heightened Def Con from 0.000887768 +++++to 0.000887768
Heightened Def Con from 0.000887768 +++++to 0.000887768
Heightened Def Con from 0.000887768 +++++to 0.000887768
Heightened Def Con from 0.000887768 +++++to 0.000887768
Heightened Def Con from 0.000887768 +++++to 0.000887768
Heightened Def Con from 0.000887768 +++++to 0.000887768
Heightened Def Con from 0.000887768 +++++to 0.000887768
Heightened Def Con from 0.000887768 +++++to 0.000887768
Heightened Def Con from 0.000887768 +++++to 0.000887768
Heightened Def Con from 0.000887768 +++++to 0.000887768
Heightened Def Con from 0.000887768 +++++to 0.000887768
Heightened Def Con from 0.000887768 +++++to 0.000887768
Heightened Def Con from 0.000887768 +++++to 0.000887768
Heightened Def Con from 0.000887768 +++++to 0.000887768
Heightened Def Con from 0.000887768 +++++to 0.000887768
Heightened Def Con from 0.000887768 +++++to 0.000887768
Heightened Def Con from 0.000887768 +++++to 0.000887768
Heightened Def Con from 0.000887768 +++++to 0.000887768
Heightened Def Con from 0.000887768 +++++to 0.000887768
Heightened Def Con from 0.000887768 +++++to 0.000887768
Heightened Def Con from 0.000887768 +++++to 0.000887768
Heightened Def Con from 0.000887768 +++++to 0.000887768
Heightened Def Con from 0.000887768 +++++to 0.000887768
Heightened Def Con from 0.000887768 +++++to 0.000887768
Heightened Def Con from 0.000887768 +++++to 0.000887768
Heightened Def Con from 0.000887768 +++++to 0.000887768
Heightened Def Con from 0.000887768 +++++to 0.000887768
Heightened Def Con from 0.000887768 +++++to 0.000887768
Heightened Def Con from 0.000887768 +++++to 0.000887768
Heightened Def Con from 0.000887768 +++++to 0.000887768
Heightened Def Con from 0.000887768 +++++to 0.000887768
Heightened Def Con from 0.000887768 +++++to 0.000887768
Heightened Def Con from 0.000887768 +++++to 0.000887768
Heightened Def Con from 0.000887768 +++++to 0.000887768
Heightened Def Con from 0.000887768 +++++to 0.000887768
Heightened Def Con from 0.000887768 +++++to 0.000887768
Heightened Def Con from 0.000887768 +++++to 0.000887768
Heightened Def Con from 0.000887768 +++++to 0.000887768
Heightened Def Con from 0.000887768 +++++to 0.000887768
Heightened Def Con from 0.000887768 +++++to 0.000887768
Heightened Def Con from 0.000887768 +++++to 0.000887768
Heightened Def Con from 0.000887768 +++++to 0.000887768
Heightened Def Con from 0.000887768 +++++to 0.000887768
Heightened Def Con from 0.000887768 +++++to 0.000887768
Heightened Def Con from 0.000887768 +++++to 0.000887768
Heightened Def Con from 0.000887768 +++++to 0.000887768
Heightened Def Con from 0.000887768 +++++to 0.000887768
Heightened Def Con from 0.000887768 +++++to 0.000887768
Heightened Def Con from 0.000887768 +++++to 0.000887768
Heightened Def Con from 0.000887768 +++++to 0.000887768
Heightened Def Con from 0.000887768 +++++to 0.000887768
Heightened Def Con from 0.000887768 +++++to 0.000887768
Heightened Def Con from 0.000887768 +++++to 0.000887768
Heightened Def Con from 0.000887768 +++++to 0.000887768
Heightened Def Con from 0.000887768 +++++to 0.000887768
Heightened Def Con from 0.000887768 +++++to 0.000887768
Heightened Def Con from 0.000887768 +++++to 0.000887768
Heightened Def Con from 0.000887768 +++++to 0.000887768
Heightened Def Con from 0.000887768 +++++to 0.000887768
Heightened Def Con from 0.000887768 +++++to 0.000887768
Heightened Def Con from 0.000887768 +++++to 0.000887768
Heightened Def Con from 0.000887768 +++++to 0.000887768
Heightened Def Con from 0.000887768 +++++to 0.000887768
Heightened Def Con from 0.000887768 +++++to 0.000887768
Heightened Def Con from 0.000887768 +++++to 0.000887768
Heightened Def Con from 0.000887768 +++++to 0.000887768
Heightened Def Con from 0.000887768 +++++to 0.000887768
Heightened Def Con from 0.000887768 +++++to 0.000887768
Heightened Def Con from 0.000887768 +++++to 0.000887768
Heightened Def Con from 0.000887768 +++++to 0.000887768
Heightened Def Con from 0.000887768 +++++to 0.000887768
Heightened Def Con from 0.000887768 +++++to 0.000887768
Heightened Def Con from 0.000887768 +++++to 0.000887768
Heightened Def Con from 0.000887768 +++++to 0.000887768
Heightened Def Con from 0.000887768 +++++to 0.000887768
Heightened Def Con from 0.000887768 +++++to 0.000887768
Heightened Def Con from 0.000887768 +++++to 0.000887768
Heightened Def Con from 0.000887768 +++++to 0.000887768
Heightened Def Con from 0.000887768 +++++to 0.000887768
Heightened Def Con from 0.000887768 +++++to 0.000887768
Heightened Def Con from 0.000887768 +++++to 0.000887768
Heightened Def Con from 0.000887768 +++++to 0.000887768
Heightened Def Con from 0.000887768 +++++to 0.000887768
Heightened Def Con from 0.000887768 +++++to 0.000887768
Heightened Def Con from 0.000887768 +++++to 0.000887768
Heightened Def Con from 0.000887768 +++++to 0.000887768
Heightened Def Con from 0.000887768 +++++to 0.000887768
Heightened Def Con from 0.000887768 +++++to 0.000887768
Heightened Def Con from 0.000887768 +++++to 0.000887768
Heightened Def Con from 0.000887768 +++++to 0.000887768
Heightened Def Con from 0.000887768 +++++to 0.000887768
Heightened Def Con from 0.000887768 +++++to 0.000887768
Heightened Def Con from 0.000887768 +++++to 0.000887768
Heightened Def Con from 0.000887768 +++++to 0.000887768
Heightened Def Con from 0.000887768 +++++to 0.000887768
Heightened Def Con from 0.000887768 +++++to 0.000887768
Heightened Def Con from 0.000887768 +++++to 0.000887768
Heightened Def Con from 0.000887768 +++++to 0.000887768
Heightened Def Con from 0.000887768 +++++to 0.000887768
Heightened Def Con from 0.000887768 +++++to 0.000887768
Heightened Def Con from 0.000887768 +++++to 0.000887768
Heightened Def Con from 0.000887768 +++++to 0.000887768
Heightened Def Con from 0.000887768 +++++to 0.000887768
Heightened Def Con from 0.000887768 +++++to 0.000887768
Heightened Def Con from 0.000887768 +++++to 0.000887768
Heightened Def Con from 0.000887768 +++++to 0.000887768
Heightened Def Con from 0.000887768 +++++to 0.000887768
Heightened Def Con from 0.000887768 +++++to 0.000887768
Heightened Def Con from 0.000887768 +++++to 0.000887768
Heightened Def Con from 0.000887768 +++++to 0.000887768
Heightened Def Con from 0.000887768 +++++to 0.000887768
Heightened Def Con from 0.000887768 +++++to 0.000887768
Heightened Def Con from 0.000887768 +++++to 0.000887768
Heightened Def Con from 0.000887768 +++++to 0.000887768
Heightened Def Con from 0.000887768 +++++to 0.000887768
Heightened Def Con from 0.000887768 +++++to 0.000887768
Heightened Def Con from 0.000887768 +++++to 0.000887768
Heightened Def Con from 0.000887768 +++++to 0.000887768
Heightened Def Con from 0.000887768 +++++to 0.000887768
Heightened Def Con from 0.000887768 +++++to 0.000887768
Heightened Def Con from 0.000887768 +++++to 0.000887768
Heightened Def Con from 0.000887768 +++++to 0.000887768
Heightened Def Con from 0.000887768 +++++to 0.000887768
Heightened Def Con from 0.000887768 +++++to 0.000887768
Heightened Def Con from 0.000887768 +++++to 0.000887768
Heightened Def Con from 0.000887768 +++++to 0.000887768
Heightened Def Con from 0.000887768 +++++to 0.000887768
Heightened Def Con from 0.000887768 +++++to 0.000887768
Heightened Def Con from 0.000887768 +++++to 0.000887768
Heightened Def Con from 0.000887768 +++++to 0.000887768
Heightened Def Con from 0.000887768 +++++to 0.000887768
Heightened Def Con from 0.000887768 +++++to 0.000887768
Heightened Def Con from 0.000887768 +++++to 0.000887768
Heightened Def Con from 0.000887768 +++++to 0.000887768
Heightened Def Con from 0.000887768 +++++to 0.000887768
Heightened Def Con from 0.000887768 +++++to 0.000887768
Heightened Def Con from 0.000887768 +++++to 0.000887768
Heightened Def Con from 0.000887768 +++++to 0.000887768
Heightened Def Con from 0.000887768 +++++to 0.000887768
Heightened Def Con from 0.000887768 +++++to 0.000887768
Heightened Def Con from 0.000887768 +++++to 0.000887768
Heightened Def Con from 0.000887768 +++++to 0.000887768
Heightened Def Con from 0.000887768 +++++to 0.000887768
Heightened Def Con from 0.000887768 +++++to 0.000887768
Heightened Def Con from 0.000887768 +++++to 0.000887768
Heightened Def Con from 0.000887768 ++++++to 0.000887768
Heightened Def Con from 0.000887768 ++++++to 0.000887768
Heightened Def Con from 0.000887768 ++++++to 0.000887768
Heightened Def Con from 0.000887768 ++++++to 0.000887768
Heightened Def Con from 0.000887768 ++++++to 0.000887768
Heightened Def Con from 0.000887768 ++++++to 0.000887768
Heightened Def Con from 0.000887768 ++++++to 0.000887768
Heightened Def Con from 0.000887768 ++++++to 0.000887768
Heightened Def Con from 0.000887768 ++++++to 0.000887768
Heightened Def Con from 0.000887768 ++++++to 0.000887768
Heightened Def Con from 0.000887768 ++++++to 0.000887768
Heightened Def Con from 0.000887768 ++++++to 0.000887768
Heightened Def Con from 0.000887768 ++++++to 0.000887768
Heightened Def Con from 0.000887768 ++++++to 0.000887768
Heightened Def Con from 0.000887768 ++++++to 0.000887768
Heightened Def Con from 0.000887768 ++++++to 0.000887768
Heightened Def Con from 0.000887768 ++++++to 0.000887768
Heightened Def Con from 0.000887768 ++++++to 0.000887768
Heightened Def Con from 0.000887768 ++++++to 0.000887768
Heightened Def Con from 0.000887768 ++++++to 0.000887768
Heightened Def Con from 0.000887768 ++++++to 0.000887768
Heightened Def Con from 0.000887768 ++++++to 0.000887768
Heightened Def Con from 0.000887768 ++++++to 0.000887768
Heightened Def Con from 0.000887768 ++++++to 0.000887768
Heightened Def Con from 0.000887768 ++++++to 0.000887768
Heightened Def Con from 0.000887768 ++++++to 0.000887768
Heightened Def Con from 0.000887768 ++++++to 0.000887768
Heightened Def Con from 0.000887768 ++++++to 0.000887768
Heightened Def Con from 0.000887768 ++++++to 0.000887768
Heightened Def Con from 0.000887768 ++++++to 0.000887768
Heightened Def Con from 0.000887768 ++++++to 0.000887768
Heightened Def Con from 0.000887768 ++++++to 0.000887768
Heightened Def Con from 0.000887768 ++++++to 0.000887768
Heightened Def Con from 0.000887768 ++++++to 0.000887768
Heightened Def Con from 0.000887768 ++++++to 0.000887768
Heightened Def Con from 0.000887768 ++++++to 0.000887768
Heightened Def Con from 0.000887768 ++++++to 0.000887768
Heightened Def Con from 0.000887768 ++++++to 0.000887768
Heightened Def Con from 0.000887768 ++++++to 0.000887768
Heightened Def Con from 0.000887768 ++++++to 0.000887768
Heightened Def Con from 0.000887768 ++++++to 0.000887768
Heightened Def Con from 0.000887768 ++++++to 0.000887768
Heightened Def Con from 0.000887768 ++++++to 0.000887768
Heightened Def Con from 0.000887768 ++++++to 0.000887768
Heightened Def Con from 0.000887768 ++++++to 0.000887768
Heightened Def Con from 0.000887768 ++++++to 0.000887768
Heightened Def Con from 0.000887768 ++++++to 0.000887768
Heightened Def Con from 0.000887768 ++++++to 0.000887768
Heightened Def Con from 0.000887768 ++++++to 0.000887768
Heightened Def Con from 0.000887768 ++++++to 0.000887768
Heightened Def Con from 0.000887768 ++++++to 0.000887768
Heightened Def Con from 0.000887768 ++++++to 0.000887768
Heightened Def Con from 0.000887768 ++++++to 0.000887768
Heightened Def Con from 0.000887768 ++++++to 0.000887768
Heightened Def Con from 0.000887768 ++++++to 0.000887768
Heightened Def Con from 0.000887768 ++++++to 0.000887768
Heightened Def Con from 0.000887768 ++++++to 0.000887768
Heightened Def Con from 0.000887768 ++++++to 0.000887768
Heightened Def Con from 0.000887768 ++++++to 0.000887768
Heightened Def Con from 0.000887768 ++++++to 0.000887768
Heightened Def Con from 0.000887768 ++++++to 0.000887768
Heightened Def Con from 0.000887768 ++++++to 0.000887768
Heightened Def Con from 0.000887768 ++++++to 0.000887768
Heightened Def Con from 0.000887768 ++++++to 0.000887768
Heightened Def Con from 0.000887768 ++++++to 0.000887768
Heightened Def Con from 0.000887768 ++++++to 0.000887768
Heightened Def Con from 0.000887768 ++++++to 0.000887768
Heightened Def Con from 0.000887768 ++++++to 0.000887768
Heightened Def Con from 0.000887768 ++++++to 0.000887768
Heightened Def Con from 0.000887768 ++++++to 0.000887768
Heightened Def Con from 0.000887768 ++++++to 0.000887768
Heightened Def Con from 0.000887768 ++++++to 0.000887768
Heightened Def Con from 0.000887768 ++++++to 0.000887768
Heightened Def Con from 0.000887768 ++++++to 0.000887768
Heightened Def Con from 0.000887768 ++++++to 0.000887768
Heightened Def Con from 0.000887768 ++++++to 0.000887768
Heightened Def Con from 0.000887768 ++++++to 0.000887768
Heightened Def Con from 0.000887768 ++++++to 0.000887768
Heightened Def Con from 0.000887768 ++++++to 0.000887768
Heightened Def Con from 0.000887768 ++++++to 0.000887768
Heightened Def Con from 0.000887768 ++++++to 0.000887768
Heightened Def Con from 0.000887768 ++++++to 0.000887768
Heightened Def Con from 0.000887768 ++++++to 0.000887768
Heightened Def Con from 0.000887768 ++++++to 0.000887768
Heightened Def Con from 0.000887768 ++++++to 0.000887768
Heightened Def Con from 0.000887768 ++++++to 0.000887768
Heightened Def Con from 0.000887768 ++++++to 0.000887768
Heightened Def Con from 0.000887768 ++++++to 0.000887768
Heightened Def Con from 0.000887768 ++++++to 0.000887768
Heightened Def Con from 0.000887768 ++++++to 0.000887768
Heightened Def Con from 0.000887768 ++++++to 0.000887768
Heightened Def Con from 0.000887768 ++++++to 0.000887768
Heightened Def Con from 0.000887768 ++++++to 0.000887768
Heightened Def Con from 0.000887768 ++++++to 0.000887768
Heightened Def Con from 0.000887768 ++++++to 0.000887768
Heightened Def Con from 0.000887768 ++++++to 0.000887768
Heightened Def Con from 0.000887768 ++++++to 0.000887768
Heightened Def Con from 0.000887768 ++++++to 0.000887768
Heightened Def Con from 0.000887768 ++++++to 0.000887768
Heightened Def Con from 0.000887768 ++++++to 0.000887768
Heightened Def Con from 0.000887768 ++++++to 0.000887768
Heightened Def Con from 0.000887768 ++++++to 0.000887768
Heightened Def Con from 0.000887768 ++++++to 0.000887768
Heightened Def Con from 0.000887768 ++++++to 0.000887768
Heightened Def Con from 0.000887768 ++++++to 0.000887768
Heightened Def Con from 0.000887768 ++++++to 0.000887768
Heightened Def Con from 0.000887768 ++++++to 0.000887768
Heightened Def Con from 0.000887768 ++++++to 0.000887768
Heightened Def Con from 0.000887768 ++++++to 0.000887768
Heightened Def Con from 0.000887768 ++++++to 0.000887768
Heightened Def Con from 0.000887768 ++++++to 0.000887768
Heightened Def Con from 0.000887768 ++++++to 0.000887768
Heightened Def Con from 0.000887768 ++++++to 0.000887768
Heightened Def Con from 0.000887768 ++++++to 0.000887768
Heightened Def Con from 0.000887768 ++++++to 0.000887768
Heightened Def Con from 0.000887768 ++++++to 0.000887768
Heightened Def Con from 0.000887768 ++++++to 0.000887768
Heightened Def Con from 0.000887768 ++++++to 0.000887768
Heightened Def Con from 0.000887768 ++++++to 0.000887768
Heightened Def Con from 0.000887768 ++++++to 0.000887768
Heightened Def Con from 0.000887768 ++++++to 0.000887768
Heightened Def Con from 0.000887768 ++++++to 0.000887768
Heightened Def Con from 0.000887768 ++++++to 0.000887768
Heightened Def Con from 0.000887768 ++++++to 0.000887768
Heightened Def Con from 0.000887768 ++++++to 0.000887768
Heightened Def Con from 0.000887768 ++++++to 0.000887768
Heightened Def Con from 0.000887768 ++++++to 0.000887768
Heightened Def Con from 0.000887768 ++++++to 0.000887768
Heightened Def Con from 0.000887768 ++++++to 0.000887768
Heightened Def Con from 0.000887768 ++++++to 0.000887768
Heightened Def Con from 0.000887768 ++++++to 0.000887768
Heightened Def Con from 0.000887768 ++++++to 0.000887768
Heightened Def Con from 0.000887768 ++++++to 0.000887768
Heightened Def Con from 0.000887768 ++++++to 0.000887768
Heightened Def Con from 0.000887768 ++++++to 0.000887768
Heightened Def Con from 0.000887768 ++++++to 0.000887768
Heightened Def Con from 0.000887768 ++++++to 0.000887768
Heightened Def Con from 0.000887768 ++++++to 0.000887768
Heightened Def Con from 0.000887768 ++++++to 0.000887768
Heightened Def Con from 0.000887768 ++++++to 0.000887768
Heightened Def Con from 0.000887768 ++++++to 0.000887768
Heightened Def Con from 0.000887768 ++++++to 0.000887768
Heightened Def Con from 0.000887768 ++++++to 0.000887768
Heightened Def Con from 0.000887768 ++++++to 0.000887768
Heightened Def Con from 0.000887768 ++++++to 0.000887768
Heightened Def Con from 0.000887768 ++++++to 0.000887768
Heightened Def Con from 0.000887768 ++++++to 0.000887768
Heightened Def Con from 0.000887768 ++++++to 0.000887768
Heightened Def Con from 0.000887768 ++++++to 0.000887768
Heightened Def Con from 0.000887768 ++++++to 0.000887768
Heightened Def Con from 0.000887768 ++++++to 0.000887768
Heightened Def Con from 0.000887768 ++++++to 0.000887768
Heightened Def Con from 0.000887768 ++++++to 0.000887768
Heightened Def Con from 0.000887768 +++++++to 0.000887768
Heightened Def Con from 0.000887768 +++++++to 0.000887768
Heightened Def Con from 0.000887768 +++++++to 0.000887768
Heightened Def Con from 0.000887768 +++++++to 0.000887768
Heightened Def Con from 0.000887768 +++++++to 0.000887768
Heightened Def Con from 0.000887768 +++++++to 0.000887768
Heightened Def Con from 0.000887768 +++++++to 0.000887768
Heightened Def Con from 0.000887768 +++++++to 0.000887768
Heightened Def Con from 0.000887768 +++++++to 0.000887768
Heightened Def Con from 0.000887768 +++++++to 0.000887768
Heightened Def Con from 0.000887768 +++++++to 0.000887768
Heightened Def Con from 0.000887768 +++++++to 0.000887768
Heightened Def Con from 0.000887768 +++++++to 0.000887768
Heightened Def Con from 0.000887768 +++++++to 0.000887768
Heightened Def Con from 0.000887768 +++++++to 0.000887768
Heightened Def Con from 0.000887768 +++++++to 0.000887768
Heightened Def Con from 0.000887768 +++++++to 0.000887768
Heightened Def Con from 0.000887768 +++++++to 0.000887768
Heightened Def Con from 0.000887768 +++++++to 0.000887768
Heightened Def Con from 0.000887768 +++++++to 0.000887768
Heightened Def Con from 0.000887768 +++++++to 0.000887768
Heightened Def Con from 0.000887768 +++++++to 0.000887768
Heightened Def Con from 0.000887768 +++++++to 0.000887768
Heightened Def Con from 0.000887768 +++++++to 0.000887768
Heightened Def Con from 0.000887768 +++++++to 0.000887768
Heightened Def Con from 0.000887768 +++++++to 0.000887768
Heightened Def Con from 0.000887768 +++++++to 0.000887768
Heightened Def Con from 0.000887768 +++++++to 0.000887768
Heightened Def Con from 0.000887768 +++++++to 0.000887768
Heightened Def Con from 0.000887768 +++++++to 0.000887768
Heightened Def Con from 0.000887768 +++++++to 0.000887768
Heightened Def Con from 0.000887768 +++++++to 0.000887768
Heightened Def Con from 0.000887768 +++++++to 0.000887768
Heightened Def Con from 0.000887768 +++++++to 0.000887768
Heightened Def Con from 0.000887768 +++++++to 0.000887768
Heightened Def Con from 0.000887768 +++++++to 0.000887768
Heightened Def Con from 0.000887768 +++++++to 0.000887768
Heightened Def Con from 0.000887768 +++++++to 0.000887768
Heightened Def Con from 0.000887768 +++++++to 0.000887768
Heightened Def Con from 0.000887768 +++++++to 0.000887768
Heightened Def Con from 0.000887768 +++++++to 0.000887768
Heightened Def Con from 0.000887768 +++++++to 0.000887768
Heightened Def Con from 0.000887768 +++++++to 0.000887768
Heightened Def Con from 0.000887768 +++++++to 0.000887768
Heightened Def Con from 0.000887768 +++++++to 0.000887768
Heightened Def Con from 0.000887768 +++++++to 0.000887768
Heightened Def Con from 0.000887768 +++++++to 0.000887768
Heightened Def Con from 0.000887768 +++++++to 0.000887768
Heightened Def Con from 0.000887768 +++++++to 0.000887768
Heightened Def Con from 0.000887768 +++++++to 0.000887768
Heightened Def Con from 0.000887768 +++++++to 0.000887768
Heightened Def Con from 0.000887768 +++++++to 0.000887768
Heightened Def Con from 0.000887768 +++++++to 0.000887768
Heightened Def Con from 0.000887768 +++++++to 0.000887768
Heightened Def Con from 0.000887768 +++++++to 0.000887768
Heightened Def Con from 0.000887768 +++++++to 0.000887768
Heightened Def Con from 0.000887768 +++++++to 0.000887768
Heightened Def Con from 0.000887768 +++++++to 0.000887768
Heightened Def Con from 0.000887768 +++++++to 0.000887768
Heightened Def Con from 0.000887768 +++++++to 0.000887768
Heightened Def Con from 0.000887768 +++++++to 0.000887768
Heightened Def Con from 0.000887768 +++++++to 0.000887768
Heightened Def Con from 0.000887768 +++++++to 0.000887768
Heightened Def Con from 0.000887768 +++++++to 0.000887768
Heightened Def Con from 0.000887768 +++++++to 0.000887768
Heightened Def Con from 0.000887768 +++++++to 0.000887768
Heightened Def Con from 0.000887768 +++++++to 0.000887768
Heightened Def Con from 0.000887768 +++++++to 0.000887768
Heightened Def Con from 0.000887768 +++++++to 0.000887768
Heightened Def Con from 0.000887768 +++++++to 0.000887768
Heightened Def Con from 0.000887768 +++++++to 0.000887768
Heightened Def Con from 0.000887768 +++++++to 0.000887768
Heightened Def Con from 0.000887768 +++++++to 0.000887768
Heightened Def Con from 0.000887768 +++++++to 0.000887768
Heightened Def Con from 0.000887768 +++++++to 0.000887768
Heightened Def Con from 0.000887768 +++++++to 0.000887768
Heightened Def Con from 0.000887768 +++++++to 0.000887768
Heightened Def Con from 0.000887768 +++++++to 0.000887768
Heightened Def Con from 0.000887768 +++++++to 0.000887768
Heightened Def Con from 0.000887768 +++++++to 0.000887768
Heightened Def Con from 0.000887768 +++++++to 0.000887768
Heightened Def Con from 0.000887768 +++++++to 0.000887768
Heightened Def Con from 0.000887768 +++++++to 0.000887768
Heightened Def Con from 0.000887768 +++++++to 0.000887768
Heightened Def Con from 0.000887768 +++++++to 0.000887768
Heightened Def Con from 0.000887768 +++++++to 0.000887768
Heightened Def Con from 0.000887768 +++++++to 0.000887768
Heightened Def Con from 0.000887768 +++++++to 0.000887768
Heightened Def Con from 0.000887768 +++++++to 0.000887768
Heightened Def Con from 0.000887768 +++++++to 0.000887768
Heightened Def Con from 0.000887768 +++++++to 0.000887768
Heightened Def Con from 0.000887768 +++++++to 0.000887768
Heightened Def Con from 0.000887768 +++++++to 0.000887768
Heightened Def Con from 0.000887768 +++++++to 0.000887768
Heightened Def Con from 0.000887768 +++++++to 0.000887768
Heightened Def Con from 0.000887768 +++++++to 0.000887768
Heightened Def Con from 0.000887768 +++++++to 0.000887768
Heightened Def Con from 0.000887768 +++++++to 0.000887768
Heightened Def Con from 0.000887768 +++++++to 0.000887768
Heightened Def Con from 0.000887768 +++++++to 0.000887768
Heightened Def Con from 0.000887768 +++++++to 0.000887768
Heightened Def Con from 0.000887768 +++++++to 0.000887768
Heightened Def Con from 0.000887768 +++++++to 0.000887768
Heightened Def Con from 0.000887768 +++++++to 0.000887768
Heightened Def Con from 0.000887768 +++++++to 0.000887768
Heightened Def Con from 0.000887768 +++++++to 0.000887768
Heightened Def Con from 0.000887768 +++++++to 0.000887768
Heightened Def Con from 0.000887768 +++++++to 0.000887768
Heightened Def Con from 0.000887768 +++++++to 0.000887768
Heightened Def Con from 0.000887768 +++++++to 0.000887768
Heightened Def Con from 0.000887768 +++++++to 0.000887768
Heightened Def Con from 0.000887768 +++++++to 0.000887768
Heightened Def Con from 0.000887768 +++++++to 0.000887768
Heightened Def Con from 0.000887768 +++++++to 0.000887768
Heightened Def Con from 0.000887768 +++++++to 0.000887768
Heightened Def Con from 0.000887768 +++++++to 0.000887768
Heightened Def Con from 0.000887768 +++++++to 0.000887768
Heightened Def Con from 0.000887768 +++++++to 0.000887768
Heightened Def Con from 0.000887768 +++++++to 0.000887768
Heightened Def Con from 0.000887768 +++++++to 0.000887768
Heightened Def Con from 0.000887768 +++++++to 0.000887768
Heightened Def Con from 0.000887768 +++++++to 0.000887768
Heightened Def Con from 0.000887768 +++++++to 0.000887768
Heightened Def Con from 0.000887768 +++++++to 0.000887768
Heightened Def Con from 0.000887768 +++++++to 0.000887768
Heightened Def Con from 0.000887768 +++++++to 0.000887768
Heightened Def Con from 0.000887768 +++++++to 0.000887768
Heightened Def Con from 0.000887768 +++++++to 0.000887768
Heightened Def Con from 0.000887768 +++++++to 0.000887768
Heightened Def Con from 0.000887768 +++++++to 0.000887768
Heightened Def Con from 0.000887768 +++++++to 0.000887768
Heightened Def Con from 0.000887768 +++++++to 0.000887768
Heightened Def Con from 0.000887768 +++++++to 0.000887768
Heightened Def Con from 0.000887768 +++++++to 0.000887768
Heightened Def Con from 0.000887768 +++++++to 0.000887768
Heightened Def Con from 0.000887768 +++++++to 0.000887768
Heightened Def Con from 0.000887768 +++++++to 0.000887768
Heightened Def Con from 0.000887768 +++++++to 0.000887768
Heightened Def Con from 0.000887768 +++++++to 0.000887768
Heightened Def Con from 0.000887768 +++++++to 0.000887768
Heightened Def Con from 0.000887768 +++++++to 0.000887768
Heightened Def Con from 0.000887768 +++++++to 0.000887768
Heightened Def Con from 0.000887768 +++++++to 0.000887768
Heightened Def Con from 0.000887768 +++++++to 0.000887768
Heightened Def Con from 0.000887768 +++++++to 0.000887768
Heightened Def Con from 0.000887768 +++++++to 0.000887768
Heightened Def Con from 0.000887768 +++++++to 0.000887768
Heightened Def Con from 0.000887768 +++++++to 0.000887768
Heightened Def Con from 0.000887768 +++++++to 0.000887768
Heightened Def Con from 0.000887768 ++++++++to 0.000887768
Heightened Def Con from 0.000887768 ++++++++to 0.000887768
Heightened Def Con from 0.000887768 ++++++++to 0.000887768
Heightened Def Con from 0.000887768 ++++++++to 0.000887768
Heightened Def Con from 0.000887768 ++++++++to 0.000887768
Heightened Def Con from 0.000887768 ++++++++to 0.000887768
Heightened Def Con from 0.000887768 ++++++++to 0.000887768
Heightened Def Con from 0.000887768 ++++++++to 0.000887768
Heightened Def Con from 0.000887768 ++++++++to 0.000887768
Heightened Def Con from 0.000887768 ++++++++to 0.000887768
Heightened Def Con from 0.000887768 ++++++++to 0.000887768
Heightened Def Con from 0.000887768 ++++++++to 0.000887768
Heightened Def Con from 0.000887768 ++++++++to 0.000887768
Heightened Def Con from 0.000887768 ++++++++to 0.000887768
Heightened Def Con from 0.000887768 ++++++++to 0.000887768
Heightened Def Con from 0.000887768 ++++++++to 0.000887768
Heightened Def Con from 0.000887768 ++++++++to 0.000887768
Heightened Def Con from 0.000887768 ++++++++to 0.000887768
Heightened Def Con from 0.000887768 ++++++++to 0.000887768
Heightened Def Con from 0.000887768 ++++++++to 0.000887768
Heightened Def Con from 0.000887768 ++++++++to 0.000887768
Heightened Def Con from 0.000887768 ++++++++to 0.000887768
Heightened Def Con from 0.000887768 ++++++++to 0.000887768
Heightened Def Con from 0.000887768 ++++++++to 0.000887768
Heightened Def Con from 0.000887768 ++++++++to 0.000887768
Heightened Def Con from 0.000887768 ++++++++to 0.000887768
Heightened Def Con from 0.000887768 ++++++++to 0.000887768
Heightened Def Con from 0.000887768 ++++++++to 0.000887768
Heightened Def Con from 0.000887768 ++++++++to 0.000887768
Heightened Def Con from 0.000887768 ++++++++to 0.000887768
Heightened Def Con from 0.000887768 ++++++++to 0.000887768
Heightened Def Con from 0.000887768 ++++++++to 0.000887768
Heightened Def Con from 0.000887768 ++++++++to 0.000887768
Heightened Def Con from 0.000887768 ++++++++to 0.000887768
Heightened Def Con from 0.000887768 ++++++++to 0.000887768
Heightened Def Con from 0.000887768 ++++++++to 0.000887768
Heightened Def Con from 0.000887768 ++++++++to 0.000887768
Heightened Def Con from 0.000887768 ++++++++to 0.000887768
Heightened Def Con from 0.000887768 ++++++++to 0.000887768
Heightened Def Con from 0.000887768 ++++++++to 0.000887768
Heightened Def Con from 0.000887768 ++++++++to 0.000887768
Heightened Def Con from 0.000887768 ++++++++to 0.000887768
Heightened Def Con from 0.000887768 ++++++++to 0.000887768
Heightened Def Con from 0.000887768 ++++++++to 0.000887768
Heightened Def Con from 0.000887768 ++++++++to 0.000887768
Heightened Def Con from 0.000887768 ++++++++to 0.000887768
Heightened Def Con from 0.000887768 ++++++++to 0.000887768
Heightened Def Con from 0.000887768 ++++++++to 0.000887768
Heightened Def Con from 0.000887768 ++++++++to 0.000887768
Heightened Def Con from 0.000887768 ++++++++to 0.000887768
Heightened Def Con from 0.000887768 ++++++++to 0.000887768
Heightened Def Con from 0.000887768 ++++++++to 0.000887768
Heightened Def Con from 0.000887768 ++++++++to 0.000887768
Heightened Def Con from 0.000887768 ++++++++to 0.000887768
Heightened Def Con from 0.000887768 ++++++++to 0.000887768
Heightened Def Con from 0.000887768 ++++++++to 0.000887768
Heightened Def Con from 0.000887768 ++++++++to 0.000887768
Heightened Def Con from 0.000887768 ++++++++to 0.000887768
Heightened Def Con from 0.000887768 ++++++++to 0.000887768
Heightened Def Con from 0.000887768 ++++++++to 0.000887768
Heightened Def Con from 0.000887768 ++++++++to 0.000887768
Heightened Def Con from 0.000887768 ++++++++to 0.000887768
Heightened Def Con from 0.000887768 ++++++++to 0.000887768
Heightened Def Con from 0.000887768 ++++++++to 0.000887768
Heightened Def Con from 0.000887768 ++++++++to 0.000887768
Heightened Def Con from 0.000887768 ++++++++to 0.000887768
Heightened Def Con from 0.000887768 ++++++++to 0.000887768
Heightened Def Con from 0.000887768 ++++++++to 0.000887768
Heightened Def Con from 0.000887768 ++++++++to 0.000887768
Heightened Def Con from 0.000887768 ++++++++to 0.000887768
Heightened Def Con from 0.000887768 ++++++++to 0.000887768
Heightened Def Con from 0.000887768 ++++++++to 0.000887768
Heightened Def Con from 0.000887768 ++++++++to 0.000887768
Heightened Def Con from 0.000887768 ++++++++to 0.000887768
Heightened Def Con from 0.000887768 ++++++++to 0.000887768
Heightened Def Con from 0.000887768 ++++++++to 0.000887768
Heightened Def Con from 0.000887768 ++++++++to 0.000887768
Heightened Def Con from 0.000887768 ++++++++to 0.000887768
Heightened Def Con from 0.000887768 ++++++++to 0.000887768
Heightened Def Con from 0.000887768 ++++++++to 0.000887768
Heightened Def Con from 0.000887768 ++++++++to 0.000887768
Heightened Def Con from 0.000887768 ++++++++to 0.000887768
Heightened Def Con from 0.000887768 ++++++++to 0.000887768
Heightened Def Con from 0.000887768 ++++++++to 0.000887768
Heightened Def Con from 0.000887768 ++++++++to 0.000887768
Heightened Def Con from 0.000887768 ++++++++to 0.000887768
Heightened Def Con from 0.000887768 ++++++++to 0.000887768
Heightened Def Con from 0.000887768 ++++++++to 0.000887768
Heightened Def Con from 0.000887768 ++++++++to 0.000887768
Heightened Def Con from 0.000887768 ++++++++to 0.000887768
Heightened Def Con from 0.000887768 ++++++++to 0.000887768
Heightened Def Con from 0.000887768 ++++++++to 0.000887768
Heightened Def Con from 0.000887768 ++++++++to 0.000887768
Heightened Def Con from 0.000887768 ++++++++to 0.000887768
Heightened Def Con from 0.000887768 ++++++++to 0.000887768
Heightened Def Con from 0.000887768 ++++++++to 0.000887768
Heightened Def Con from 0.000887768 ++++++++to 0.000887768
Heightened Def Con from 0.000887768 ++++++++to 0.000887768
Heightened Def Con from 0.000887768 ++++++++to 0.000887768
Heightened Def Con from 0.000887768 ++++++++to 0.000887768
Heightened Def Con from 0.000887768 ++++++++to 0.000887768
Heightened Def Con from 0.000887768 ++++++++to 0.000887768
Heightened Def Con from 0.000887768 ++++++++to 0.000887768
Heightened Def Con from 0.000887768 ++++++++to 0.000887768
Heightened Def Con from 0.000887768 ++++++++to 0.000887768
Heightened Def Con from 0.000887768 ++++++++to 0.000887768
Heightened Def Con from 0.000887768 ++++++++to 0.000887768
Heightened Def Con from 0.000887768 ++++++++to 0.000887768
Heightened Def Con from 0.000887768 ++++++++to 0.000887768
Heightened Def Con from 0.000887768 ++++++++to 0.000887768
Heightened Def Con from 0.000887768 ++++++++to 0.000887768
Heightened Def Con from 0.000887768 ++++++++to 0.000887768
Heightened Def Con from 0.000887768 ++++++++to 0.000887768
Heightened Def Con from 0.000887768 ++++++++to 0.000887768
Heightened Def Con from 0.000887768 ++++++++to 0.000887768
Heightened Def Con from 0.000887768 ++++++++to 0.000887768
Heightened Def Con from 0.000887768 ++++++++to 0.000887768
Heightened Def Con from 0.000887768 ++++++++to 0.000887768
Heightened Def Con from 0.000887768 ++++++++to 0.000887768
Heightened Def Con from 0.000887768 ++++++++to 0.000887768
Heightened Def Con from 0.000887768 ++++++++to 0.000887768
Heightened Def Con from 0.000887768 ++++++++to 0.000887768
Heightened Def Con from 0.000887768 ++++++++to 0.000887768
Heightened Def Con from 0.000887768 ++++++++to 0.000887768
Heightened Def Con from 0.000887768 ++++++++to 0.000887768
Heightened Def Con from 0.000887768 ++++++++to 0.000887768
Heightened Def Con from 0.000887768 ++++++++to 0.000887768
Heightened Def Con from 0.000887768 ++++++++to 0.000887768
Heightened Def Con from 0.000887768 ++++++++to 0.000887768
Heightened Def Con from 0.000887768 ++++++++to 0.000887768
Heightened Def Con from 0.000887768 ++++++++to 0.000887768
Heightened Def Con from 0.000887768 ++++++++to 0.000887768
Heightened Def Con from 0.000887768 ++++++++to 0.000887768
Heightened Def Con from 0.000887768 ++++++++to 0.000887768
Heightened Def Con from 0.000887768 ++++++++to 0.000887768
Heightened Def Con from 0.000887768 ++++++++to 0.000887768
Heightened Def Con from 0.000887768 ++++++++to 0.000887768
Heightened Def Con from 0.000887768 ++++++++to 0.000887768
Heightened Def Con from 0.000887768 ++++++++to 0.000887768
Heightened Def Con from 0.000887768 ++++++++to 0.000887768
Heightened Def Con from 0.000887768 ++++++++to 0.000887768
Heightened Def Con from 0.000887768 ++++++++to 0.000887768
Heightened Def Con from 0.000887768 ++++++++to 0.000887768
Heightened Def Con from 0.000887768 ++++++++to 0.000887768
Heightened Def Con from 0.000887768 ++++++++to 0.000887768
Heightened Def Con from 0.000887768 ++++++++to 0.000887768
Heightened Def Con from 0.000887768 ++++++++to 0.000887768
Heightened Def Con from 0.000887768 ++++++++to 0.000887768
Heightened Def Con from 0.000887768 ++++++++to 0.000887768
Heightened Def Con from 0.000887768 ++++++++to 0.000887768
Heightened Def Con from 0.000887768 ++++++++to 0.000887768
Heightened Def Con from 0.000887768 ++++++++to 0.000887768
Heightened Def Con from 0.000887768 ++++++++to 0.000887768
Heightened Def Con from 0.000887768 ++++++++to 0.000887768
Heightened Def Con from 0.000887768 ++++++++to 0.000887768
Heightened Def Con from 0.000887768 ++++++++to 0.000887768
Heightened Def Con from 0.000887768 ++++++++to 0.000887768
Heightened Def Con from 0.000887768 ++++++++to 0.000887768
Heightened Def Con from 0.000887768 ++++++++to 0.000887768
Heightened Def Con from 0.000887768 ++++++++to 0.000887768
Heightened Def Con from 0.000887768 +++++++++to 0.000887768
Heightened Def Con from 0.000887768 +++++++++to 0.000887768
Heightened Def Con from 0.000887768 +++++++++to 0.000887768
Heightened Def Con from 0.000887768 to 0.000887768
Heightened Def Con from 0.000887768 to 0.000887768
Heightened Def Con from 0.000913387 to 0.000913388
Heightened Def Con from 0.000939007 to 0.000939008
Heightened Def Con from 0.0011824 to 0.0011824
Heightened Def Con from 0.00122083 +to 0.00122083
Heightened Def Con from 0.00122083 +to 0.00122083
Heightened Def Con from 0.00122083 +to 0.00122083
Heightened Def Con from 0.00122083 +to 0.00122083
Heightened Def Con from 0.00122083 ++to 0.00122083
Heightened Def Con from 0.00122083 ++to 0.00122083
Heightened Def Con from 0.00122083 ++to 0.00122083
Heightened Def Con from 0.00122083 ++to 0.00122083
Heightened Def Con from 0.00122083 to 0.00122083
Heightened Def Con from 0.00122083 ++to 0.00122083
Heightened Def Con from 0.00122083 ++to 0.00122083
Heightened Def Con from 0.00122083 +++to 0.00122083
Heightened Def Con from 0.00122083 ++to 0.00122083
Heightened Def Con from 0.00122083 ++to 0.00122083
Heightened Def Con from 0.00122083 +++to 0.00122083
Heightened Def Con from 0.00122083 +++to 0.00122083
Heightened Def Con from 0.00122083 +++to 0.00122083
Heightened Def Con from 0.00122083 ++to 0.00122083
Heightened Def Con from 0.00122083 +++to 0.00122083
Heightened Def Con from 0.00122083 +++to 0.00122083
Heightened Def Con from 0.00122083 +++to 0.00122083
Heightened Def Con from 0.00122083 +++to 0.00122083
Heightened Def Con from 0.00122083 +++to 0.00122083
Heightened Def Con from 0.00122083 +++to 0.00122083
Heightened Def Con from 0.00122083 ++to 0.00122083
Heightened Def Con from 0.00122083 ++to 0.00122083
Heightened Def Con from 0.00122083 +++to 0.00122083
Heightened Def Con from 0.00122083 ++++to 0.00122083
Heightened Def Con from 0.00122083 ++++to 0.00122083
Heightened Def Con from 0.00122083 ++++to 0.00122083
Heightened Def Con from 0.00122083 ++++to 0.00122083
Heightened Def Con from 0.00122083 ++++to 0.00122083
Heightened Def Con from 0.00122083 ++++to 0.00122083
Heightened Def Con from 0.00122083 ++++to 0.00122083
Heightened Def Con from 0.00122083 ++++to 0.00122083
Heightened Def Con from 0.00122083 ++++to 0.00122083
Heightened Def Con from 0.00122083 ++++to 0.00122083
Heightened Def Con from 0.00122083 ++++to 0.00122083
Heightened Def Con from 0.00122083 ++++to 0.00122083
Heightened Def Con from 0.00122083 ++++to 0.00122083
Heightened Def Con from 0.00122083 ++++to 0.00122083
Heightened Def Con from 0.00122083 ++++to 0.00122083
Heightened Def Con from 0.00122083 ++++to 0.00122083
Heightened Def Con from 0.00122083 ++++to 0.00122083
Heightened Def Con from 0.00122083 ++++to 0.00122083
Heightened Def Con from 0.00122083 ++++to 0.00122083
Heightened Def Con from 0.00122083 +++++to 0.00122083
Heightened Def Con from 0.00122083 ++++to 0.00122083
Heightened Def Con from 0.00122083 ++++to 0.00122083
Heightened Def Con from 0.00122083 +++++to 0.00122083
Heightened Def Con from 0.00122083 +++++to 0.00122083
Heightened Def Con from 0.00122083 +++++to 0.00122083
Heightened Def Con from 0.00122083 +++++to 0.00122083
Heightened Def Con from 0.00122083 +++++to 0.00122083
Heightened Def Con from 0.00122083 +++++to 0.00122083
Heightened Def Con from 0.00122083 +++++to 0.00122083
Heightened Def Con from 0.00122083 +++++to 0.00122083
Heightened Def Con from 0.00122083 +++++to 0.00122083
Heightened Def Con from 0.00122083 +++++to 0.00122083
Heightened Def Con from 0.00122083 +++++to 0.00122083
Heightened Def Con from 0.00122083 +++++to 0.00122083
Heightened Def Con from 0.00122083 +++++to 0.00122083
Heightened Def Con from 0.00122083 +++++to 0.00122083
Heightened Def Con from 0.00122083 +++++to 0.00122083
Heightened Def Con from 0.00122083 +++++to 0.00122083
Heightened Def Con from 0.00122083 +++++to 0.00122083
Heightened Def Con from 0.00122083 +++++to 0.00122083
Heightened Def Con from 0.00122083 +++++to 0.00122083
Heightened Def Con from 0.00122083 +++++to 0.00122083
Heightened Def Con from 0.00122083 +++++to 0.00122083
Heightened Def Con from 0.00122083 +++++to 0.00122083
Heightened Def Con from 0.00122083 +++++to 0.00122083
Heightened Def Con from 0.00122083 +++++to 0.00122083
Heightened Def Con from 0.00122083 +++++to 0.00122083
Heightened Def Con from 0.00122083 +++++to 0.00122083
Heightened Def Con from 0.00122083 +++++to 0.00122083
Heightened Def Con from 0.00122083 +++++to 0.00122083
Heightened Def Con from 0.00122083 +++++to 0.00122083
Heightened Def Con from 0.00122083 +++++to 0.00122083
Heightened Def Con from 0.00122083 ++++++to 0.00122083
Heightened Def Con from 0.00122083 to 0.00122083
Heightened Def Con from 0.00122083 to 0.00122083
Heightened Def Con from 0.00123364 +to 0.00123364
Heightened Def Con from 0.00123364 +to 0.00123364
Heightened Def Con from 0.00123364 +to 0.00123364
Heightened Def Con from 0.00123364 ++to 0.00123364
Heightened Def Con from 0.00123364 to 0.00123364
Heightened Def Con from 0.00123364 +to 0.00123364
Heightened Def Con from 0.00123364 ++to 0.00123364
Heightened Def Con from 0.00123364 +to 0.00123364
Heightened Def Con from 0.00123364 ++to 0.00123364
Heightened Def Con from 0.00123364 ++to 0.00123364
Heightened Def Con from 0.00123364 ++to 0.00123364
Heightened Def Con from 0.00123364 +++to 0.00123364
Heightened Def Con from 0.00123364 ++to 0.00123364
Heightened Def Con from 0.00123364 +++to 0.00123364
Heightened Def Con from 0.00123364 +++to 0.00123364
Heightened Def Con from 0.00123364 +++to 0.00123364
Heightened Def Con from 0.00123364 +++to 0.00123364
Heightened Def Con from 0.00123364 ++++to 0.00123364
Heightened Def Con from 0.00123364 +++to 0.00123364
Heightened Def Con from 0.00123364 +++to 0.00123364
Heightened Def Con from 0.00123364 +++to 0.00123364
Heightened Def Con from 0.00123364 +++to 0.00123364
Heightened Def Con from 0.00123364 +++to 0.00123364
Heightened Def Con from 0.00123364 ++to 0.00123364
Heightened Def Con from 0.00123364 +++to 0.00123364
Heightened Def Con from 0.00123364 +++to 0.00123364
Heightened Def Con from 0.00123364 +++to 0.00123364
Heightened Def Con from 0.00123364 +++to 0.00123364
Heightened Def Con from 0.00123364 +++to 0.00123364
Heightened Def Con from 0.00123364 +++to 0.00123364
Heightened Def Con from 0.00123364 +++to 0.00123364
Heightened Def Con from 0.00123364 +++to 0.00123364
Heightened Def Con from 0.00123364 +++to 0.00123364
Heightened Def Con from 0.00123364 +++to 0.00123364
Heightened Def Con from 0.00123364 +++to 0.00123364
Heightened Def Con from 0.00123364 +++to 0.00123364
Heightened Def Con from 0.00123364 +++to 0.00123364
Heightened Def Con from 0.00123364 ++++to 0.00123364
Heightened Def Con from 0.00123364 ++++to 0.00123364
Heightened Def Con from 0.00123364 ++++to 0.00123364
Heightened Def Con from 0.00123364 ++++to 0.00123364
Heightened Def Con from 0.00123364 ++++to 0.00123364
Heightened Def Con from 0.00123364 ++++to 0.00123364
Heightened Def Con from 0.00123364 ++++to 0.00123364
Heightened Def Con from 0.00123364 ++++to 0.00123364
Heightened Def Con from 0.00123364 ++++to 0.00123364
Heightened Def Con from 0.00123364 ++++to 0.00123364
Heightened Def Con from 0.00123364 ++++to 0.00123364
Heightened Def Con from 0.00123364 ++++to 0.00123364
Heightened Def Con from 0.00123364 ++++to 0.00123364
Heightened Def Con from 0.00123364 ++++to 0.00123364
Heightened Def Con from 0.00123364 to 0.00123364
Heightened Def Con from 0.00123364 to 0.00123364
Heightened Def Con from 0.00124645 to 0.00124645
Heightened Def Con from 0.00127207 to 0.00127207

Date: Tue Apr 07 23:27:37 2020
Total elapsed time: 300.120 seconds.

tnom = 27
temp = 27
method = modified trap
totiter = 863097
traniter = 861382
tranpoints = 106805
accept = 36772
rejected = 76160
matrix size = 391
fillins = 10108
solver = Normal
Thread vector: 61.9/20.7[6] 11.3/7.0[6] 26.2/9.5[6] 5.9/10.8[1]  2592/500
Matrix Compiler1: 3.72 MB object code size  772.7/508.9/[491.5]
Matrix Compiler2: 211.40 KB object code size  37.6/22.8/[13.6]

