Circuit: * C:\Users\lisan\Documents\Repositorios\ASSD\TP1---Muestreo\Integracion LTSpice\Integracion_modificado.asc

Early termination of direct N-R iteration.
Direct Newton iteration failed to find .op point.  (Use ".option noopiter" to skip.)
Starting Gmin stepping
Gmin = 10
vernier = 0.5
vernier = 0.25
vernier = 0.125
Gmin = 5.6588
vernier = 0.0625
vernier = 0.03125
vernier = 0.015625
Gmin = 5.48561
vernier = 0.0078125
vernier = 0.00390625
vernier = 0.00195313
vernier = 0.000976563
vernier = 0.000488281
Gmin = 5.50166
Gmin = 0
Gmin stepping failed

Starting source stepping with srcstepmethod=0
Source Step = 3.0303%
Source Step = 33.3333%
Source Step = 63.6364%
Source Step = 93.9394%
Source stepping succeeded in finding the operating point.

Heightened Def Con from 0.000757004 to 0.000757005
Heightened Def Con from 0.0007571 to 0.000757101
Heightened Def Con from 0.0010425 to 0.00104251
Heightened Def Con from 0.00133235 to 0.00133235
Heightened Def Con from 0.0016216 to 0.0016216
Heightened Def Con from 0.00219689 to 0.00219689
Heightened Def Con from 0.00248336 to 0.00248336
Heightened Def Con from 0.0024834 to 0.0024834
Heightened Def Con from 0.00305247 to 0.00305247
Heightened Def Con from 0.00334161 to 0.00334162
Heightened Def Con from 0.00392242 to 0.00392242

Date: Tue Apr 07 12:21:49 2020
Total elapsed time: 16.072 seconds.

tnom = 27
temp = 27
method = modified trap
totiter = 37295
traniter = 35507
tranpoints = 9126
accept = 7758
rejected = 1379
matrix size = 433
fillins = 9589
solver = Normal
Thread vector: 57.2/28.9[6] 17.1/6.9[6] 13.0/6.0[6] 10.4/8.9[3]  2592/500
Matrix Compiler1: 1.90 MB object code size  659.1/262.4/[142.0]
Matrix Compiler2: 212.88 KB object code size  43.5/24.1/[17.6]

