Circuit: * C:\Users\lisan\Documents\Repositorios\ASSD\TP1---Muestreo\Integracion LTSpice\Oscilador2.asc

WARNING: Less than two connections to node VCC-.  This node is used by V2.
Early termination of direct N-R iteration.
Direct Newton iteration failed to find .op point.  (Use ".option noopiter" to skip.)
Starting Gmin stepping
Gmin = 10
Gmin = 1.07374
Gmin = 0.115292
Gmin = 0.0123794
vernier = 0.5
vernier = 0.25
vernier = 0.125
Gmin = 0.0050706
vernier = 0.0625
vernier = 0.03125
vernier = 0.015625
vernier = 0.0078125
Gmin = 0.00502149
vernier = 0.00390625
vernier = 0.00195313
vernier = 0.000976563
vernier = 0.000488281
Gmin = 0.00502271
Gmin = 0
Gmin stepping failed

Starting source stepping with srcstepmethod=0
Source Step = 3.0303%
Source Step = 33.3333%
Source Step = 63.6364%
Source Step = 93.9394%
Source stepping succeeded in finding the operating point.


Date: Tue Apr 07 12:28:55 2020
Total elapsed time: 0.439 seconds.

tnom = 27
temp = 27
method = modified trap
totiter = 21606
traniter = 19816
tranpoints = 4445
accept = 3545
rejected = 900
matrix size = 51
fillins = 153
solver = Normal
Matrix Compiler1: 13.00 KB object code size  2.4/1.2/[0.7]
Matrix Compiler2: 6.35 KB object code size  0.6/0.7/[0.4]

