Circuit: * C:\Users\lisan\Documents\Repositorios\ASSD\TP1---Muestreo\Ex6\Spice\Integracion_modificado.asc

Early termination of direct N-R iteration.
Direct Newton iteration failed to find .op point.  (Use ".option noopiter" to skip.)
Starting Gmin stepping
Gmin = 10
vernier = 0.5
vernier = 0.25
vernier = 0.125
Gmin = 5.49741
vernier = 0.0625
vernier = 0.03125
vernier = 0.015625
vernier = 0.0078125
Gmin = 5.51716
vernier = 0.00390625
vernier = 0.00195313
vernier = 0.000976563
Gmin = 0
Gmin = 0
Gmin stepping failed

Starting source stepping with srcstepmethod=0
Source Step = 3.0303%
Source Step = 33.3333%
Source Step = 63.6364%
Source Step = 93.9394%
Source stepping succeeded in finding the operating point.

Ignoring empty pin current: Ix(u9:1)
Ignoring empty pin current: Ix(u9:2)
Ignoring empty pin current: Ix(u9:1)
Ignoring empty pin current: Ix(u9:2)

Date: Wed Apr 08 04:00:21 2020
Total elapsed time: 14.200 seconds.

tnom = 27
temp = 27
method = modified trap
totiter = 13104
traniter = 11524
tranpoints = 5168
accept = 4935
rejected = 233
matrix size = 391
fillins = 10377
solver = Normal
Thread vector: 63.2/46.7[6] 11.2/7.4[6] 26.3/19.2[6] 7.8/115.1[1]  2592/500
Matrix Compiler1: 4.00 MB object code size  952.6/556.1/[351.5]
Matrix Compiler2: 214.56 KB object code size  48.7/29.8/[16.7]

