Circuit: * C:\Users\lisan\Documents\Repositorios\ASSD\TP1---Muestreo\Ex8\Spice\esquematico.asc

Direct Newton iteration for .op point succeeded.
Ignoring empty pin current: Ix(u2:1)
Ignoring empty pin current: Ix(u2:2)
Ignoring empty pin current: Ix(u2:1)
Ignoring empty pin current: Ix(u2:2)

Date: Tue Apr 07 18:12:50 2020
Total elapsed time: 0.308 seconds.

tnom = 27
temp = 27
method = modified trap
totiter = 64691
traniter = 64642
tranpoints = 19437
accept = 14903
rejected = 4534
matrix size = 54
fillins = 22
solver = Normal
Matrix Compiler1: 2.86 KB object code size  0.5/0.3/[0.1]
Matrix Compiler2: 4.72 KB object code size  0.3/0.5/[0.3]

